9

 C   -1.109863578404   -0.650430170524    0.000000000000
 C   -0.184319362342    0.547855322731   -0.000000000000
 O    1.139138154493    0.074674851326    0.000000000000
 H   -2.146956473510   -0.332077489493    0.000000000000
 H   -0.935585805255   -1.260999196970    0.877684065179
 H   -0.935585805255   -1.260999196970   -0.877684065179
 H   -0.361042810209    1.164681353227   -0.877167827842
 H   -0.361042810209    1.164681353228    0.877167827842
 H    1.734322322865    0.810319945845    0.000000000000
9

 C   -1.109346231558   -0.649131472025    0.000000000000
 C   -0.182035690247    0.548713504118    0.000000000004
 O    1.141654912281    0.074503402851    0.000000000002
 H   -2.147286435198   -0.331213106831   -0.000000000008
 H   -0.934116915820   -1.259581743701    0.878434892666
 H   -0.934116915808   -1.259581743704   -0.878434892661
 H   -0.369127713258    1.164319252710   -0.877556552079
 H   -0.369127713258    1.164319252707    0.877556552089
 H    1.742566535038    0.805359426275   -0.000000000013
9

 C   -1.109290162176   -0.649909403134    0.000000000040
 C   -0.181685334395    0.548790682131   -0.000000001849
 O    1.140653530721    0.074672454435   -0.000000003316
 H   -2.147063974387   -0.330810242854    0.000000002437
 H   -0.934738354965   -1.260863848656    0.878659791418
 H   -0.934738358852   -1.260863848553   -0.878659792178
 H   -0.367631497728    1.165104586516   -0.877876205474
 H   -0.367631495353    1.165104587030    0.877876201917
 H    1.741189479308    0.806481805486    0.000000007004
9

 C   -1.109411941081   -0.649906286483   -0.000000000387
 C   -0.181534292998    0.548496469913    0.000000005404
 O    1.140745595660    0.074890717908    0.000000006165
 H   -2.147093517441   -0.330691328310   -0.000000005129
 H   -0.934828330201   -1.260767867097    0.878583895235
 H   -0.934828321802   -1.260767865334   -0.878583895580
 H   -0.367560202472    1.164848974051   -0.877722811444
 H   -0.367560201532    1.164848979976    0.877722818293
 H    1.741135044041    0.806754977776   -0.000000012557
